*Heading
3x3x1 sheet-Diamond lattice-skin plate under eps11 tension
** Generated by generate_diamond_tension_twist_inp.py
*Preprint, echo=NO, model=NO, history=NO, contact=NO
*Part, name=DIAMOND_LPS
*Node
1, 0.00000000, 0.00000000, -2.91666667
2, 0.41666667, 0.00000000, -2.91666667
3, 0.41666667, 0.41666667, -2.91666667
4, 0.00000000, 0.41666667, -2.91666667
5, 0.00000000, 0.00000000, -2.50000000
6, 0.41666667, 0.00000000, -2.50000000
7, 0.41666667, 0.41666667, -2.50000000
8, 0.00000000, 0.41666667, -2.50000000
9, 0.00000000, 0.00000000, 2.08333333
10, 0.41666667, 0.00000000, 2.08333333
11, 0.41666667, 0.41666667, 2.08333333
12, 0.00000000, 0.41666667, 2.08333333
13, 0.00000000, 0.00000000, 2.50000000
14, 0.41666667, 0.00000000, 2.50000000
15, 0.41666667, 0.41666667, 2.50000000
16, 0.00000000, 0.41666667, 2.50000000
17, 0.41666667, 0.83333333, -2.91666667
18, 0.00000000, 0.83333333, -2.91666667
19, 0.41666667, 0.83333333, -2.50000000
20, 0.00000000, 0.83333333, -2.50000000
** ... 50398 like lines cut
*Element, type=C3D4, elset=SOLID
1, 1, 2, 3, 7
2, 1, 3, 4, 7
3, 1, 4, 8, 7
4, 1, 8, 5, 7
5, 1, 5, 6, 7
6, 1, 6, 2, 7
7, 9, 10, 11, 15
8, 9, 11, 12, 15
9, 9, 12, 16, 15
10, 9, 16, 13, 15
11, 9, 13, 14, 15
12, 9, 14, 10, 15
13, 4, 3, 17, 19
14, 4, 17, 18, 19
15, 4, 18, 20, 19
16, 4, 20, 8, 19
17, 4, 8, 7, 19
18, 4, 7, 3, 19
19, 12, 11, 21, 23
20, 12, 21, 22, 23
** ... 112276 like lines cut
*Nset, nset=XMIN
1, 4, 5, 8, 9, 12, 13, 16, 18, 20, 22, 24, 26, 28, 30, 32
34, 36, 38, 40, 41, 44, 46, 48, 49, 52, 54, 56, 57, 60, 61, 64
65, 68, 69, 72, 74, 76, 78, 79, 82, 83, 86, 87, 90, 91, 94, 96
98, 100, 102, 103, 106, 107, 110, 111, 114, 115, 118, 119, 122, 124, 126, 127
130, 131, 134, 135, 138, 139, 142, 143, 146, 147, 150, 152, 154, 156, 158, 160
162, 164, 166, 168, 170, 172, 174, 176, 178, 180, 182, 184, 186, 188, 190, 192
194, 196, 198, 199, 202, 204, 205, 208, 210, 212, 214, 216, 218, 220, 222, 224
226, 228, 230, 232, 234, 235, 238, 240, 242, 243, 246, 248, 250, 251, 254, 255
258, 259, 262, 263, 266, 268, 270, 272, 273, 276, 277, 280, 281, 284, 285, 288
290, 292, 294, 296, 297, 300, 301, 304, 305, 308, 309, 312, 313, 316, 318, 320
321, 324, 325, 328, 329, 332, 333, 336, 337, 340, 341, 344, 346, 348, 350, 352
354, 356, 358, 360, 362, 364, 366, 368, 370, 372, 374, 376, 378, 380, 382, 384
386, 388, 389, 392, 394, 395, 398, 400, 402, 404, 406, 408, 410, 412, 414, 416
418, 420, 422, 424, 425, 428, 430, 432, 433, 436, 438, 440, 441, 444, 445, 448
449, 452, 453, 456, 458, 460, 462, 463, 466, 467, 470, 471, 474, 475, 478, 480
482, 484, 486, 487, 490, 491, 494, 495, 498, 499, 502, 503, 506, 508, 510, 511
514, 515, 518, 519, 522, 523, 526, 527, 530, 531, 534, 536, 538, 540, 542, 544
546, 548, 550, 552, 554, 556, 558, 560, 562, 564, 566, 568, 570, 572, 574, 576
578, 580, 582, 583, 586, 588, 589, 592, 594, 596, 598, 600, 602, 604, 606, 608
610, 612, 614, 616, 618, 619, 622, 624, 626, 627, 630, 632, 634, 635, 638, 639
** ... 17 like lines cut
*Nset, nset=XMAX
49659, 49660, 49661, 49662, 49663, 49664, 49665, 49666, 49667, 49668, 49669, 49670, 49671, 49672, 49673, 49674
49675, 49677, 49678, 49679, 49680, 49682, 49683, 49684, 49685, 49687, 49689, 49690, 49691, 49692, 49694, 49696
49697, 49698, 49699, 49701, 49703, 49705, 49706, 49707, 49708, 49709, 49710, 49711, 49712, 49714, 49716, 49718
49719, 49720, 49721, 49722, 49723, 49724, 49725, 49726, 49727, 49728, 49729, 49730, 49731, 49732, 49734, 49735
49737, 49738, 49740, 49742, 49743, 49744, 49745, 49746, 49747, 49748, 49750, 49751, 49753, 49754, 49756, 49758
49759, 49760, 49761, 49763, 49764, 49765, 49766, 49768, 49769, 49770, 49771, 49772, 49773, 49774, 49775, 49776
49777, 49778, 49779, 49780, 49781, 49782, 49783, 49784, 49785, 49786, 49787, 49788, 49789, 49790, 49791, 49792
49793, 49794, 49795, 49796, 49797, 49798, 49799, 49800, 49802, 49803, 49804, 49805, 49807, 49808, 49809, 49810
49812, 49814, 49815, 49816, 49817, 49819, 49821, 49822, 49823, 49824, 49826, 49828, 49830, 49831, 49832, 49833
49834, 49835, 49836, 49837, 49839, 49841, 49843, 49844, 49845, 49846, 49847, 49848, 49849, 49850, 49851, 49852
49853, 49854, 49855, 49856, 49857, 49859, 49860, 49862, 49863, 49865, 49867, 49868, 49869, 49870, 49871, 49872
49873, 49875, 49876, 49878, 49879, 49881, 49883, 49884, 49885, 49886, 49888, 49889, 49890, 49891, 49893, 49894
49895, 49896, 49897, 49898, 49899, 49900, 49901, 49902, 49903, 49904, 49905, 49906, 49907, 49908, 49909, 49910
49911, 49912, 49913, 49914, 49915, 49916, 49917, 49918, 49919, 49920, 49921, 49922, 49923, 49924, 49925, 49927
49928, 49929, 49930, 49932, 49933, 49934, 49935, 49937, 49939, 49940, 49941, 49942, 49944, 49946, 49947, 49948
49949, 49951, 49953, 49955, 49956, 49957, 49958, 49959, 49960, 49961, 49962, 49964, 49966, 49968, 49969, 49970
49971, 49972, 49973, 49974, 49975, 49976, 49977, 49978, 49979, 49980, 49982, 49983, 49985, 49986, 49988, 49989
49991, 49993, 49994, 49995, 49996, 49997, 49998, 49999, 50001, 50002, 50004, 50005, 50007, 50009, 50010, 50011
50012, 50014, 50015, 50016, 50017, 50019, 50020, 50021, 50022, 50023, 50024, 50025, 50026, 50027, 50028, 50029
50030, 50031, 50032, 50033, 50034, 50035, 50036, 50037, 50038, 50039, 50040, 50041, 50042, 50043, 50044, 50045
** ... 19 like lines cut
*Nset, nset=ANCHOR_YZ
1841
*Nset, nset=ANCHOR_Z
1032
*Solid Section, elset=SOLID, material=BASE
,
*End Part
*Assembly, name=ASSEMBLY
*Instance, name=DIAMOND_LPS-1, part=DIAMOND_LPS
*End Instance
*End Assembly
*Material, name=BASE
*Elastic
1215, 0.35
*Step, name=EPS11_TENSION, nlgeom=NO
*Static
0.1, 1.0, 1e-05, 0.1
*Boundary
ASSEMBLY.DIAMOND_LPS-1.XMIN, 1, 1, 0.0
ASSEMBLY.DIAMOND_LPS-1.XMAX, 1, 1, 0.3
ASSEMBLY.DIAMOND_LPS-1.ANCHOR_YZ, 2, 3, 0.0
ASSEMBLY.DIAMOND_LPS-1.ANCHOR_Z, 3, 3, 0.0
*Output, field, frequency=1
*Node Output
U
*Element Output, directions=YES
S, E, SENER
*Output, history, frequency=1
*Node Output, nset=ASSEMBLY.DIAMOND_LPS-1.XMAX
U1, RF1
*End Step
